Circuit: * C:\electronics\LTspiceIV\my_circuits\Base bias test.asc

Direct Newton iteration for .op point succeeded.

Date: Mon Feb 15 21:28:50 2016
Total elapsed time: 0.750 seconds.

tnom = 27
temp = 27
method = modified trap
totiter = 80493
traniter = 80485
tranpoints = 27715
accept = 18994
rejected = 8721
matrix size = 18
fillins = 11
solver = Normal
Matrix Compiler1: 1.77 KB object code size  0.6/0.2/[0.1]
Matrix Compiler2: off  [0.1]/0.2/0.2


