Circuit: * F:\electronics\LTspiceIV\mycircuits\Base bias test.asc

WARNING: Node NC_01 is floating.

WARNING: Less than two connections to node NC_01.  This node is used by C1.
WARNING: Less than two connections to node N007.  This node is used by Q2.
WARNING: Less than two connections to node N006.  This node is used by Q3.
Direct Newton iteration for .op point succeeded.

Date: Wed Jan 27 20:22:01 2016
Total elapsed time: 0.281 seconds.

tnom = 27
temp = 27
method = modified trap
totiter = 16052
traniter = 16030
tranpoints = 8016
accept = 4818
rejected = 3198
matrix size = 16
fillins = 0
solver = Normal
Matrix Compiler1: 726 bytes object code size  2.1/2.1/[1.8]
Matrix Compiler2: off  [1.9]/2.1/3.2


