Circuit: * C:\electronics\LTspiceIV\my_circuits\CE BC549 Tip122 with Push Pull and FB and no bypass caps.asc

WARNING: Node N011 is floating.

WARNING: Less than two connections to node N011.  This node is used by C5.
WARNING: Less than two connections to node N002.  This node is used by R8.
Direct Newton iteration for .op point succeeded.

Date: Mon Feb 01 15:50:50 2016
Total elapsed time: 0.061 seconds.

tnom = 27
temp = 27
method = trap
totiter = 15
traniter = 0
tranpoints = 0
accept = 0
rejected = 0
matrix size = 28
fillins = 18
solver = Normal
Matrix Compiler1:     175 opcodes
Matrix Compiler2: 2.88 KB object code size

