Circuit: * C:\electronics\LTspiceIV\my_circuits\CE BC549 Tip122 Push Pull FB no bypass caps - 2.asc

WARNING: Node NC_01 is floating.
WARNING: Node N013 is floating.
WARNING: Node NC_02 is floating.

WARNING: Less than two connections to node NC_01.  This node is used by C4.
WARNING: Less than two connections to node N013.  This node is used by C5.
WARNING: Less than two connections to node NC_02.  This node is used by C6.
WARNING: Less than two connections to node NC_03.  This node is used by Q4.
WARNING: Less than two connections to node NC_04.  This node is used by Q5.
WARNING: Less than two connections to node N005.  This node is used by R13.
Direct Newton iteration for .op point succeeded.

Date: Sat Jan 30 21:07:15 2016
Total elapsed time: 0.082 seconds.

tnom = 27
temp = 27
method = modified trap
totiter = 830
traniter = 800
tranpoints = 401
accept = 322
rejected = 79
matrix size = 34
fillins = 12
solver = Normal
Matrix Compiler1: 2.91 KB object code size  0.9/0.6/[0.2]
Matrix Compiler2: off  [0.3]/0.9/0.5


