Circuit: * F:\electronics\LTspiceIV\mycircuits\Common Emitter with Common Collector - without bypass cap.asc

WARNING: Node N011 is floating.
WARNING: Node NC_01 is floating.

WARNING: Less than two connections to node N011.  This node is used by C3.
WARNING: Less than two connections to node NC_01.  This node is used by C1.
WARNING: Less than two connections to node N006.  This node is used by Q2.
Direct Newton iteration for .op point succeeded.

Date: Wed Jan 27 09:03:04 2016
Total elapsed time: 0.280 seconds.

tnom = 27
temp = 27
method = modified trap
totiter = 16052
traniter = 16030
tranpoints = 8016
accept = 4818
rejected = 3198
matrix size = 16
fillins = 0
solver = Normal
Matrix Compiler1: 824 bytes object code size  2.2/2.1/[1.8]
Matrix Compiler2: off  [1.9]/2.1/3.0


