Circuit: * C:\electronics\LTspiceIV\my_circuits\Complementary feedback pair.asc

WARNING: Less than two connections to node NC_01.  This node is used by Q2.
Direct Newton iteration for .op point succeeded.

Date: Wed Feb 03 17:35:54 2016
Total elapsed time: 0.244 seconds.

tnom = 27
temp = 27
method = modified trap
totiter = 8085
traniter = 8046
tranpoints = 4024
accept = 2626
rejected = 1398
matrix size = 21
fillins = 10
solver = Normal
Matrix Compiler1: 2.09 KB object code size  0.5/0.2/[0.1]
Matrix Compiler2: off  [0.2]/0.3/0.3


