Circuit: * C:\electronics\LTspiceIV\my_circuits\Increased input impedance -Works well 25V actual values - Push pull with MJE3055.asc

WARNING: Less than two connections to node N010.  This node is used by RF.
WARNING: Less than two connections to node NC_01.  This node is used by Q2.
Direct Newton iteration for .op point succeeded.

Date: Mon Feb 08 16:43:44 2016
Total elapsed time: 0.053 seconds.

tnom = 27
temp = 27
method = modified trap
totiter = 599
traniter = 560
tranpoints = 281
accept = 281
rejected = 0
matrix size = 21
fillins = 10
solver = Normal
Matrix Compiler1: 1.99 KB object code size  0.7/0.2/[0.1]
Matrix Compiler2: off  [0.2]/0.3/0.3


