Circuit: * C:\electronics\LTspiceIV\my_circuits\Long tailed with BC549 and MJE3055.asc

Direct Newton iteration for .op point succeeded.

Date: Thu Feb 04 15:54:05 2016
Total elapsed time: 0.937 seconds.

tnom = 27
temp = 27
method = modified trap
totiter = 99334
traniter = 99319
tranpoints = 37111
accept = 25251
rejected = 11860
matrix size = 24
fillins = 24
solver = Normal
Matrix Compiler1: 2.76 KB object code size  0.5/0.3/[0.2]
Matrix Compiler2: off  [0.3]/0.3/0.3


