Circuit: * F:\electronics\LTspiceIV\mycircuits\Long tailed with 2N3904 and cascaded common collectors - noise is completely removed.asc

Direct Newton iteration for .op point succeeded.

Date: Tue Jan 26 22:56:36 2016
Total elapsed time: 7.625 seconds.

tnom = 27
temp = 27
method = modified trap
totiter = 477604
traniter = 477593
tranpoints = 213145
accept = 132468
rejected = 80677
matrix size = 23
fillins = 3
solver = Normal
Matrix Compiler1: 1.62 KB object code size  2.8/2.5/[2.2]
Matrix Compiler2: off  [2.3]/2.5/3.1


