Circuit: * C:\electronics\LTspiceIV\my_circuits\Long tailed with 2N3904 and cascaded common collectors - noise is completely removed.asc

WARNING: Node NC_01 is floating.

WARNING: Less than two connections to node N008.  This node is used by V2.
WARNING: Less than two connections to node NC_01.  This node is used by C1.
WARNING: Less than two connections to node NC_02.  This node is used by V3.
Direct Newton iteration for .op point succeeded.

Date: Thu Feb 04 15:51:17 2016
Total elapsed time: 0.411 seconds.

tnom = 27
temp = 27
method = modified trap
totiter = 41046
traniter = 41038
tranpoints = 20520
accept = 13022
rejected = 7498
matrix size = 27
fillins = 14
solver = Normal
Matrix Compiler1: 2.39 KB object code size  0.6/0.3/[0.2]
Matrix Compiler2: off  [0.3]/0.3/0.3


