Circuit: * F:\electronics\LTspiceIV\mycircuits\No bypass cap class A.asc

WARNING: Node NC_01 is floating.
WARNING: Node NC_02 is floating.
WARNING: Node NC_03 is floating.

WARNING: Less than two connections to node N011.  This node is used by RF.
WARNING: Less than two connections to node NC_01.  This node is used by C4.
WARNING: Less than two connections to node NC_02.  This node is used by C5.
WARNING: Less than two connections to node NC_03.  This node is used by C2.
Direct Newton iteration for .op point succeeded.

Date: Thu Jan 28 10:00:34 2016
Total elapsed time: 0.078 seconds.

tnom = 27
temp = 27
method = modified trap
totiter = 990
traniter = 983
tranpoints = 401
accept = 322
rejected = 79
matrix size = 22
fillins = 1
solver = Normal
Matrix Compiler1: 1.31 KB object code size  2.4/2.4/[1.9]
Matrix Compiler2: off  [2.1]/2.4/2.4


