Circuit: * C:\electronics\LTspiceIV\my_circuits\PSU R and C with Increased IN Z -Works well 25V actual values - Push pull with MJE3055.asc

WARNING: Less than two connections to node NC_01.  This node is used by Q2.
Direct Newton iteration for .op point succeeded.

Date: Sat Feb 06 19:23:47 2016
Total elapsed time: 0.325 seconds.

tnom = 27
temp = 27
method = modified trap
totiter = 16793
traniter = 16754
tranpoints = 8352
accept = 5353
rejected = 2999
matrix size = 21
fillins = 9
solver = Normal
Matrix Compiler1: 1.87 KB object code size  0.5/0.2/[0.1]
Matrix Compiler2: off  [0.2]/0.2/0.3


