Circuit: * C:\electronics\LTspiceIV\my_circuits\Remove Re - W06628 trstr -Works well 27V actual values - Push pull with MJE3055.asc

R2: both pins shorted together -- ignoring.
WARNING: Node N010 is floating.
WARNING: Node N004 is floating.

WARNING: Less than two connections to node N010.  This node is used by C2-HIFI-RESPONSE-AMPLIFIED-NOT-PURE.
WARNING: Less than two connections to node N004.  This node is used by C§69P.
Direct Newton iteration for .op point succeeded.

Date: Thu Feb 11 20:51:48 2016
Total elapsed time: 0.412 seconds.

tnom = 27
temp = 27
method = modified trap
totiter = 47378
traniter = 47355
tranpoints = 16067
accept = 10899
rejected = 5168
matrix size = 22
fillins = 9
solver = Normal
Matrix Compiler1: 1.81 KB object code size  0.6/0.2/[0.1]
Matrix Compiler2: off  [0.1]/0.3/0.3


