Circuit: * C:\electronics\LTspiceIV\my_circuits\Single transitor from westhost site with feed back.asc

WARNING: Node N007 is floating.

WARNING: Less than two connections to node N007.  This node is used by C5.
Direct Newton iteration for .op point succeeded.
.fourier quantity "V(out)" not pressent in data.


Date: Mon Feb 01 19:16:39 2016
Total elapsed time: 0.134 seconds.

tnom = 27
temp = 27
method = modified trap
totiter = 8231
traniter = 8222
tranpoints = 3870
accept = 2521
rejected = 1349
matrix size = 13
fillins = 2
solver = Normal
Matrix Compiler1: 898 bytes object code size  0.3/0.1/[0.0]
Matrix Compiler2: 1.08 KB object code size  0.2/0.2/[0.1]


