Circuit: * C:\electronics\LTspiceIV\my_circuits\W06628 trstr -Works well 27V actual values - Push pull with MJE3055.asc

WARNING: Node N011 is floating.
WARNING: Node N004 is floating.

WARNING: Less than two connections to node N011.  This node is used by C2-HIFI-RESPONSE-AMPLIFIED-NOT-PURE.
WARNING: Less than two connections to node N004.  This node is used by C§69P.
Direct Newton iteration for .op point succeeded.

Date: Thu Feb 11 15:44:52 2016
Total elapsed time: 0.147 seconds.

tnom = 27
temp = 27
method = modified trap
totiter = 10429
traniter = 10418
tranpoints = 4104
accept = 2752
rejected = 1352
matrix size = 23
fillins = 11
solver = Normal
Matrix Compiler1: 2.02 KB object code size  0.9/0.4/[0.2]
Matrix Compiler2: 2.02 KB object code size  0.3/0.3/[0.2]


