Circuit: * C:\electronics\LTspiceIV\my_circuits\Works well 25V actual values - Push pull with small bypass cap and no feedback.asc

WARNING: Node N011 is floating.
WARNING: Node N010 is floating.

WARNING: Less than two connections to node N011.  This node is used by C5.
WARNING: Less than two connections to node N010.  This node is used by C2.
Direct Newton iteration for .op point succeeded.
.fourier quantity "V(out)" not pressent in data.


Date: Mon Feb 01 18:49:33 2016
Total elapsed time: 0.259 seconds.

tnom = 27
temp = 27
method = modified trap
totiter = 8239
traniter = 8223
tranpoints = 4013
accept = 2420
rejected = 1593
matrix size = 20
fillins = 10
solver = Normal
Matrix Compiler1: 1.89 KB object code size  0.4/0.3/[0.1]
Matrix Compiler2: 1.74 KB object code size  0.2/0.2/[0.2]


