Circuit: * C:\electronics\LTspiceIV\my_circuits\Works well 25V actual values - Push pull without bypass caps without diodes and no Tip122.asc

WARNING: Node N009 is floating.

WARNING: Less than two connections to node N009.  This node is used by C5.
Direct Newton iteration for .op point succeeded.
Note: .fourier statements are only valid with a .tran command.
      No Fourier analysis performed.


Date: Mon Feb 01 15:55:03 2016
Total elapsed time: 0.071 seconds.

tnom = 27
temp = 27
method = trap
totiter = 8
traniter = 0
tranpoints = 0
accept = 0
rejected = 0
matrix size = 18
fillins = 10
solver = Normal
Matrix Compiler1:     100 opcodes
Matrix Compiler2: 1.69 KB object code size

